4e3g_lig_Ph
     RDKit          3D

 16 17  0  0  0  0  0  0  0  0999 V2000
   22.3301    6.6466   14.3746 C   0  0  0  0  0  0  0  0  0  0  0  0
   20.7803    4.7839   14.1585 C   0  0  0  0  0  0  0  0  0  0  0  0
   22.0965    5.2702   14.2203 C   0  0  0  0  0  0  0  0  0  0  0  0
   19.6977    5.6739   14.2510 C   0  0  0  0  0  0  0  0  0  0  0  0
   19.9314    7.0503   14.4052 C   0  0  0  0  0  0  0  0  0  0  0  0
   21.2475    7.5367   14.4670 C   0  0  0  0  0  0  0  0  0  0  0  0
   17.3410    1.4040   15.6300 O   0  0  0  0  0  0  0  0  0  0  0  0
   16.4400    2.1870   15.2350 C   0  0  0  0  0  0  0  0  0  0  0  0
   15.2530    1.8470   15.5410 O   0  0  0  0  0  0  0  0  0  0  0  0
   16.7060    3.4620   14.6760 C   0  0  0  0  0  0  0  0  0  0  0  0
   18.0480    3.9210   14.6600 C   0  0  0  0  0  0  0  0  0  0  0  0
   18.4420    5.2100   14.1920 C   0  0  0  0  0  0  0  0  0  0  0  0
   17.3440    5.9500   13.6530 C   0  0  0  0  0  0  0  0  0  0  0  0
   17.5460    7.2150   13.0840 O   0  0  0  0  0  0  0  0  0  0  0  0
   16.0150    5.4960   13.6580 C   0  0  0  0  0  0  0  0  0  0  0  0
   15.6810    4.2780   14.2290 C   0  0  0  0  0  0  0  0  0  0  0  0
  1  3  2  0
  2  3  1  0
  2  4  2  0
  4  5  1  0
  5  6  2  0
  1  6  1  0
  7  8  2  0
  8  9  1  0
  8 10  1  0
 10 11  2  0
  4 12  1  0
 11 12  1  0
 12 13  2  0
 13 14  1  0
 13 15  1  0
 10 16  1  0
 15 16  2  0
M  END
>  <SuCOS_score>  (1) 
1.0

>  <Volume_score>  (1) 
1.0

>  <Feature_score>  (1) 
1.0

$$$$
